Version 4
SHEET 1 1220 680
WIRE 224 -80 176 -80
WIRE 336 -80 304 -80
WIRE 176 -32 176 -80
WIRE 176 -32 80 -32
WIRE 336 -32 336 -80
WIRE 416 -32 336 -32
WIRE 176 16 176 -32
WIRE 224 16 176 16
WIRE 336 16 336 -32
WIRE 336 16 288 16
WIRE 768 80 640 80
WIRE 1088 80 848 80
WIRE 256 272 256 208
WIRE 256 272 208 272
WIRE 912 288 912 256
WIRE 912 288 752 288
WIRE 336 304 336 256
WIRE 336 304 208 304
WIRE -224 320 -256 320
WIRE -80 320 -144 320
WIRE 80 320 80 -32
WIRE 80 320 0 320
WIRE 144 320 80 320
WIRE 992 320 992 288
WIRE 992 320 752 320
WIRE 416 336 416 -32
WIRE 416 336 208 336
WIRE 448 336 416 336
WIRE 560 336 528 336
WIRE 640 336 640 80
WIRE 640 336 624 336
WIRE 688 336 640 336
WIRE -256 352 -256 320
WIRE 1088 352 1088 80
WIRE 1088 352 752 352
WIRE 1184 352 1088 352
FLAG -256 352 0
FLAG 144 288 0
FLAG 688 304 0
FLAG 336 176 0
FLAG 256 128 0
FLAG 912 176 0
FLAG 992 208 0
SYMBOL cap 560 352 R270
WINDOW 0 32 32 VTop 2
WINDOW 3 0 32 VBottom 2
SYMATTR InstName Cb
SYMATTR Value 3.3µ
SYMBOL res 432 352 R270
WINDOW 0 32 56 VTop 2
WINDOW 3 0 56 VBottom 2
SYMATTR InstName Rc
SYMATTR Value 562.18
SYMBOL res 208 -64 R270
WINDOW 0 32 56 VTop 2
WINDOW 3 0 56 VBottom 2
SYMATTR InstName Rb
SYMATTR Value 206.13
SYMBOL cap 224 32 R270
WINDOW 0 32 32 VTop 2
WINDOW 3 0 32 VBottom 2
SYMATTR InstName Ca
SYMATTR Value 1µ
SYMBOL res 16 304 R90
WINDOW 0 0 56 VBottom 2
WINDOW 3 32 56 VTop 2
SYMATTR InstName Ra
SYMATTR Value 300
SYMBOL voltage -128 320 R90
WINDOW 0 -32 56 VBottom 2
WINDOW 3 68 140 VTop 2
WINDOW 123 0 0 Left 0
WINDOW 39 0 0 Left 0
SYMATTR InstName V1
SYMATTR Value PULSE(0 1 0 1u 1u 10m 20m)
SYMBOL voltage 256 224 R180
WINDOW 0 24 96 Left 2
WINDOW 3 24 16 Left 2
WINDOW 123 0 0 Left 0
WINDOW 39 0 0 Left 0
SYMATTR InstName V2
SYMATTR Value 5
SYMBOL voltage 336 160 R0
WINDOW 123 0 0 Left 0
WINDOW 39 0 0 Left 0
SYMATTR InstName V3
SYMATTR Value 5
SYMBOL res 864 64 R90
WINDOW 0 0 56 VBottom 2
WINDOW 3 32 56 VTop 2
SYMATTR InstName Rd
SYMATTR Value 832.47
SYMBOL voltage 912 272 R180
WINDOW 0 24 96 Left 2
WINDOW 3 24 16 Left 2
WINDOW 123 0 0 Left 0
WINDOW 39 0 0 Left 0
SYMATTR InstName V4
SYMATTR Value 5
SYMBOL voltage 992 192 R0
WINDOW 123 0 0 Left 0
WINDOW 39 0 0 Left 0
SYMATTR InstName V5
SYMATTR Value 5
SYMBOL Custom\\TL081 176 304 R0
SYMATTR InstName U3
SYMBOL Custom\\TL081 720 320 R0
SYMATTR InstName U4
TEXT -432 424 Left 2 !.tran .10
